backend/app/cases/case_ANDE.m
function mpc = case_ANDE
% Caso importado de ANAREDE - case_ANDE

mpc.version = '2';
mpc.baseMVA = 100.0;

%% Datos de Barras
%  bus_i type Pd Qd Gs Bs area Vm Va baseKV zone Vmax Vmin
mpc.bus = [
    48	3	0.000	0.000	0.000	0.000	1	1.0250	4.120	100.0	1	1.100	0.900;
    85	2	66.000	0.000	0.000	2774.000	1	1.0900	4.120	100.0	1	1.100	0.900;
    86	2	15.000	1.000	0.000	0.000	1	1.0900	4.130	100.0	1	1.100	0.900;
    5411	2	6.000	1.000	0.000	0.000	1	1.0150	-42.000	100.0	1	1.100	0.900;
    183	3	0.000	0.000	0.000	0.000	1	1.0250	-9.800	100.0	1	1.100	0.900;
    184	3	0.000	0.000	0.000	0.000	1	1.0250	-9.800	100.0	1	1.100	0.900;
    203	2	22.950	8.030	0.000	6.000	1	1.0090	-45.000	100.0	1	1.100	0.900;
    206	2	0.000	24.000	0.000	24.000	1	1.0220	-44.000	100.0	1	1.100	0.900;
    208	2	0.000	18.000	0.000	18.000	1	1.0100	-47.000	100.0	1	1.100	0.900;
    209	2	3.060	0.770	0.000	0.000	1	1.0090	-39.000	100.0	1	1.100	0.900;
    211	2	27.890	9.340	0.000	12.000	1	1.0090	-46.000	100.0	1	1.100	0.900;
    215	2	14.060	5.410	0.000	6.000	1	1.0100	-20.000	100.0	1	1.100	0.900;
    216	2	0.000	24.000	0.000	24.000	1	1.0220	-45.000	100.0	1	1.100	0.900;
    219	2	16.490	5.500	0.000	3.000	1	1.0060	-35.000	100.0	1	1.100	0.900;
    220	2	0.000	18.000	0.000	18.000	1	1.0100	-48.000	100.0	1	1.100	0.900;
    227	2	0.000	18.000	0.000	18.000	1	1.0090	-47.000	100.0	1	1.100	0.900;
    229	2	8.350	2.680	0.000	0.000	1	1.0090	-45.000	100.0	1	1.100	0.900;
    233	2	0.000	18.000	0.000	18.000	1	1.0090	-48.000	100.0	1	1.100	0.900;
    238	2	4.360	1.730	0.000	1.200	1	1.0100	-41.000	100.0	1	1.100	0.900;
    239	2	0.000	24.000	0.000	24.000	1	1.0090	-46.000	100.0	1	1.100	0.900;
    241	2	0.000	12.000	0.000	12.000	1	1.0090	-50.000	100.0	1	1.100	0.900;
    244	2	32.200	9.400	0.000	3.000	1	1.0100	-44.000	100.0	1	1.100	0.900;
    246	2	0.000	7.500	0.000	7.500	1	1.0100	-44.000	100.0	1	1.100	0.900;
    271	2	0.000	12.000	0.000	12.000	1	1.0100	-58.000	100.0	1	1.100	0.900;
    284	2	0.000	12.000	0.000	12.000	1	1.0100	-22.000	100.0	1	1.100	0.900;
    288	2	26.930	7.930	0.000	6.000	1	1.0090	-24.000	100.0	1	1.100	0.900;
    301	2	0.000	0.000	0.000	0.000	1	1.0520	-43.000	100.0	1	1.100	0.900;
    303	2	0.000	0.000	0.000	0.000	1	1.0000	0.000	100.0	1	1.100	0.900;
    304	2	6.000	1.000	0.000	0.000	1	1.0080	-44.000	100.0	1	1.100	0.900;
    305	2	7.220	6.000	0.000	0.000	1	1.0340	-42.000	100.0	1	1.100	0.900;
    306	2	0.000	0.000	0.000	0.000	1	1.0260	-42.000	100.0	1	1.100	0.900;
    307	2	9.810	3.070	0.000	0.000	1	1.0240	-42.000	100.0	1	1.100	0.900;
    308	2	0.000	0.000	0.000	0.000	1	1.0150	-42.000	100.0	1	1.100	0.900;
    311	2	0.000	0.000	0.000	0.000	1	1.0170	-43.000	100.0	1	1.100	0.900;
    313	2	0.000	0.000	0.000	0.000	1	1.0210	-42.000	100.0	1	1.100	0.900;
    316	2	0.000	0.000	0.000	0.000	1	1.0350	-42.000	100.0	1	1.100	0.900;
    319	2	2.000	1.000	0.000	0.000	1	0.9880	-31.000	100.0	1	1.100	0.900;
    320	2	0.000	0.000	0.000	0.000	1	1.0240	-43.000	100.0	1	1.100	0.900;
    322	2	4.000	1.000	0.000	0.000	1	1.0090	-41.000	100.0	1	1.100	0.900;
    323	2	6.000	1.000	0.000	0.000	1	1.0450	-44.000	100.0	1	1.100	0.900;
    324	2	6.000	1.000	0.000	0.000	1	1.0120	-42.000	100.0	1	1.100	0.900;
    325	2	6.000	1.000	0.000	0.000	1	0.9990	-39.000	100.0	1	1.100	0.900;
    327	2	6.000	1.000	0.000	0.000	1	1.0220	-42.000	100.0	1	1.100	0.900;
    329	2	6.000	1.000	0.000	0.000	1	1.0320	-43.000	100.0	1	1.100	0.900;
    331	2	0.000	0.000	0.000	0.000	1	1.0200	-42.000	100.0	1	1.100	0.900;
    333	2	0.000	0.000	0.000	0.000	1	1.0080	-42.000	100.0	1	1.100	0.900;
    334	2	6.000	1.000	0.000	0.000	1	1.0230	-40.000	100.0	1	1.100	0.900;
    335	2	0.000	0.000	0.000	0.000	1	0.9850	-41.000	100.0	1	1.100	0.900;
    337	2	0.000	0.000	0.000	0.000	1	1.0140	-39.000	100.0	1	1.100	0.900;
    338	2	0.000	0.000	0.000	0.000	1	1.0260	-39.000	100.0	1	1.100	0.900;
    339	2	0.000	0.000	0.000	0.000	1	1.0500	-41.000	100.0	1	1.100	0.900;
    341	2	6.000	1.000	0.000	0.000	1	1.0150	-43.000	100.0	1	1.100	0.900;
    343	2	6.000	1.000	0.000	0.000	1	1.0310	-42.000	100.0	1	1.100	0.900;
    344	2	0.000	0.000	0.000	0.000	1	0.9930	-43.000	100.0	1	1.100	0.900;
    346	2	0.000	0.000	0.000	0.000	1	1.0000	0.000	100.0	1	1.100	0.900;
    350	2	0.000	0.000	0.000	0.000	1	0.9540	-29.000	100.0	1	1.100	0.900;
    351	2	0.000	0.000	0.000	0.000	1	1.0490	-22.000	100.0	1	1.100	0.900;
    354	2	3.000	1.000	0.000	0.000	1	1.0320	-37.000	100.0	1	1.100	0.900;
    355	2	3.000	1.000	0.000	0.000	1	1.0310	-39.000	100.0	1	1.100	0.900;
    357	2	0.000	0.000	0.000	0.000	1	1.0400	-31.000	100.0	1	1.100	0.900;
    358	2	0.000	0.000	0.000	0.000	1	0.9600	-39.000	100.0	1	1.100	0.900;
    360	2	0.000	0.000	0.000	0.000	1	0.9880	-42.000	100.0	1	1.100	0.900;
    361	2	0.000	0.000	0.000	0.000	1	1.0360	-38.000	100.0	1	1.100	0.900;
    362	2	0.000	0.000	0.000	0.000	1	0.9580	-37.000	100.0	1	1.100	0.900;
    365	2	5.000	1.000	0.000	0.000	1	1.0100	-66.000	100.0	1	1.100	0.900;
    368	2	0.000	0.000	0.000	0.000	1	1.0570	-59.000	100.0	1	1.100	0.900;
    369	2	0.000	0.000	0.000	0.000	1	1.0000	0.000	100.0	1	1.100	0.900;
    370	2	0.000	0.000	0.000	0.000	1	1.0000	0.000	100.0	1	1.100	0.900;
    371	2	0.000	0.000	0.000	0.000	1	1.0410	-55.000	100.0	1	1.100	0.900;
    372	2	0.000	0.000	0.000	0.000	1	1.0120	-61.000	100.0	1	1.100	0.900;
    373	2	0.000	0.000	0.000	0.000	1	0.9990	-32.000	100.0	1	1.100	0.900;
    374	2	8.000	1.000	0.000	0.000	1	0.9770	-80.000	100.0	1	1.100	0.900;
    375	2	0.000	0.000	0.000	0.000	1	1.0120	-38.000	100.0	1	1.100	0.900;
    376	2	0.000	0.000	0.000	0.000	1	0.9020	-44.000	100.0	1	1.100	0.900;
    378	2	3.000	1.000	0.000	0.000	1	1.0120	-40.000	100.0	1	1.100	0.900;
    379	2	0.000	0.000	0.000	0.000	1	1.0000	0.000	100.0	1	1.100	0.900;
    380	2	0.000	0.000	0.000	0.000	1	1.0060	-34.000	100.0	1	1.100	0.900;
    382	2	0.000	0.000	0.000	0.000	1	1.0100	-18.000	100.0	1	1.100	0.900;
    384	2	0.000	0.000	0.000	0.000	1	0.9840	-17.000	100.0	1	1.100	0.900;
    386	2	0.000	0.000	0.000	0.000	1	0.9160	-83.000	100.0	1	1.100	0.900;
    388	2	0.000	0.000	0.000	0.000	1	0.9520	-21.000	100.0	1	1.100	0.900;
    389	2	0.000	0.000	0.000	0.000	1	0.9770	-17.000	100.0	1	1.100	0.900;
    390	2	0.000	0.000	0.000	0.000	1	1.0250	-28.000	100.0	1	1.100	0.900;
    392	2	0.000	0.000	0.000	0.000	1	0.8590	-41.000	100.0	1	1.100	0.900;
    395	2	0.000	0.000	0.000	0.000	1	0.9330	-24.000	100.0	1	1.100	0.900;
    398	2	2.000	1.000	0.000	0.000	1	0.9430	-22.000	100.0	1	1.100	0.900;
    399	2	0.000	0.000	0.000	0.000	1	0.9300	-57.000	100.0	1	1.100	0.900;
    401	2	2.000	1.100	0.000	0.000	1	1.0730	-15.000	100.0	1	1.100	0.900;
    402	2	0.000	0.000	0.000	0.000	1	1.0330	-28.000	100.0	1	1.100	0.900;
    403	2	0.000	0.000	0.000	0.000	1	1.0080	-39.000	100.0	1	1.100	0.900;
    404	2	0.000	0.000	0.000	0.000	1	1.0300	-38.000	100.0	1	1.100	0.900;
    405	2	0.000	0.000	0.000	0.000	1	1.0140	-38.000	100.0	1	1.100	0.900;
    407	2	6.000	1.000	0.000	0.000	1	1.0030	-39.000	100.0	1	1.100	0.900;
    408	2	0.000	0.000	0.000	0.000	1	1.0090	-37.000	100.0	1	1.100	0.900;
    409	2	6.000	1.000	0.000	0.000	1	1.0150	-38.000	100.0	1	1.100	0.900;
    410	2	0.000	0.000	0.000	0.000	1	1.0210	-38.000	100.0	1	1.100	0.900;
    411	2	6.000	1.000	0.000	0.000	1	1.1100	-38.000	100.0	1	1.100	0.900;
    412	2	0.000	0.000	0.000	0.000	1	1.0000	-45.000	100.0	1	1.100	0.900;
    413	2	6.000	1.000	0.000	0.000	1	1.0150	-38.000	100.0	1	1.100	0.900;
    415	2	2.000	1.000	0.000	0.000	1	1.0610	-18.000	100.0	1	1.100	0.900;
    421	2	0.000	0.000	0.000	0.000	1	1.0050	-39.000	100.0	1	1.100	0.900;
    424	2	0.000	0.000	0.000	0.000	1	1.0130	-38.000	100.0	1	1.100	0.900;
    425	2	0.000	0.000	0.000	0.000	1	1.0330	-36.000	100.0	1	1.100	0.900;
    427	2	4.000	1.000	0.000	0.000	1	1.0220	-28.000	100.0	1	1.100	0.900;
    434	2	4.000	1.000	0.000	0.000	1	1.0260	-34.000	100.0	1	1.100	0.900;
    446	2	6.000	1.000	0.000	0.000	1	1.0160	-36.000	100.0	1	1.100	0.900;
    451	2	0.000	0.000	0.000	0.000	1	1.0590	-18.000	100.0	1	1.100	0.900;
    452	2	0.000	0.000	0.000	0.000	1	1.0470	-20.000	100.0	1	1.100	0.900;
    453	2	0.000	0.000	0.000	0.000	1	1.0390	-20.000	100.0	1	1.100	0.900;
    454	2	0.000	0.000	0.000	0.000	1	0.9550	-33.000	100.0	1	1.100	0.900;
    456	2	0.000	0.000	0.000	0.000	1	1.0690	-22.000	100.0	1	1.100	0.900;
    457	2	0.000	0.000	0.000	0.000	1	1.0590	-24.000	100.0	1	1.100	0.900;
    461	2	0.000	0.000	0.000	0.000	1	1.0300	-34.000	100.0	1	1.100	0.900;
    466	2	0.000	0.000	0.000	0.000	1	0.9970	-38.000	100.0	1	1.100	0.900;
    467	2	0.000	0.000	0.000	0.000	1	1.0150	-50.000	100.0	1	1.100	0.900;
    468	2	0.000	0.000	0.000	0.000	1	1.0640	-56.000	100.0	1	1.100	0.900;
    469	2	0.000	0.000	0.000	0.000	1	1.0980	-66.000	100.0	1	1.100	0.900;
    471	2	5.000	1.000	0.000	0.000	1	1.0320	-51.000	100.0	1	1.100	0.900;
    472	2	5.000	1.000	0.000	0.000	1	1.0230	-44.000	100.0	1	1.100	0.900;
    475	2	0.000	0.000	0.000	0.000	1	0.9920	-31.000	100.0	1	1.100	0.900;
    478	2	3.000	1.000	0.000	0.000	1	0.9660	-32.000	100.0	1	1.100	0.900;
    479	2	8.000	1.000	0.000	0.000	1	1.0130	-74.000	100.0	1	1.100	0.900;
    480	2	0.000	0.000	0.000	0.000	1	1.0280	-27.000	100.0	1	1.100	0.900;
    482	2	0.000	0.000	0.000	0.000	1	1.0430	-28.000	100.0	1	1.100	0.900;
    483	2	2.000	1.100	0.000	0.000	1	1.0730	-15.000	100.0	1	1.100	0.900;
    484	2	0.000	0.000	0.000	0.000	1	1.0270	-25.000	100.0	1	1.100	0.900;
    485	2	0.000	0.000	0.000	0.000	1	1.0170	-31.000	100.0	1	1.100	0.900;
    487	2	0.000	0.000	0.000	0.000	1	1.0490	-26.000	100.0	1	1.100	0.900;
    488	2	2.000	1.100	0.000	0.000	1	1.0720	-16.000	100.0	1	1.100	0.900;
    489	2	0.000	0.000	0.000	0.000	1	1.0710	-16.000	100.0	1	1.100	0.900;
    491	2	0.000	0.000	0.000	0.000	1	1.0280	-28.000	100.0	1	1.100	0.900;
    492	2	2.000	1.000	0.000	0.000	1	1.0150	-33.000	100.0	1	1.100	0.900;
    493	2	0.000	0.000	0.000	0.000	1	1.0070	-38.000	100.0	1	1.100	0.900;
    496	2	0.000	0.000	0.000	0.000	1	1.0490	-22.000	100.0	1	1.100	0.900;
    497	2	0.000	0.000	0.000	0.000	1	1.0420	-25.000	100.0	1	1.100	0.900;
    598	2	0.000	0.000	0.000	0.000	1	1.0100	-66.000	100.0	1	1.100	0.900;
    730	2	10.000	1.000	0.000	0.000	1	1.0300	-38.000	100.0	1	1.100	0.900;
    752	2	25.000	10.000	0.000	0.000	1	0.9960	-22.000	100.0	1	1.100	0.900;
    790	3	0.000	0.000	0.000	0.000	1	1.0320	-11.000	100.0	1	1.100	0.900;
    800	2	1.000	1.000	0.000	0.000	1	1.0350	-7.200	100.0	1	1.100	0.900;
    801	2	1.000	1.000	0.000	0.000	1	1.0350	-7.400	100.0	1	1.100	0.900;
    803	2	1.000	1.000	0.000	0.000	1	1.0360	-7.800	100.0	1	1.100	0.900;
    804	2	1538.000	1.000	0.000	1538.000	1	1.0360	-7.800	100.0	1	1.100	0.900;
    846	2	0.000	0.000	0.000	0.000	1	0.9710	-31.000	100.0	1	1.100	0.900;
    856	2	0.000	0.000	0.000	0.000	1	1.0350	-18.000	100.0	1	1.100	0.900;
    890	2	0.000	0.000	0.000	0.000	1	1.0370	-17.000	100.0	1	1.100	0.900;
    1203	2	0.000	18.000	0.000	18.000	1	1.0090	-58.000	100.0	1	1.100	0.900;
    1244	2	0.000	3.000	0.000	3.000	1	1.0100	-43.000	100.0	1	1.100	0.900;
    1272	2	23.540	8.240	0.000	12.000	1	1.0100	-60.000	100.0	1	1.100	0.900;
    1291	2	0.000	24.000	0.000	24.000	1	1.0070	-31.000	100.0	1	1.100	0.900;
    1303	2	0.000	0.000	0.000	0.000	1	1.0370	-43.000	100.0	1	1.100	0.900;
    1306	2	0.000	0.000	0.000	0.000	1	1.0170	-42.000	100.0	1	1.100	0.900;
    1308	2	0.000	0.000	0.000	0.000	1	1.0170	-42.000	100.0	1	1.100	0.900;
    1313	2	0.000	0.000	0.000	0.000	1	1.0180	-43.000	100.0	1	1.100	0.900;
    1326	2	0.000	0.000	0.000	0.000	1	1.0210	-43.000	100.0	1	1.100	0.900;
    1337	2	0.000	0.000	0.000	0.000	1	1.0320	-38.000	100.0	1	1.100	0.900;
    1338	2	0.000	0.000	0.000	0.000	1	1.0350	-38.000	100.0	1	1.100	0.900;
    1343	2	0.000	0.000	0.000	0.000	1	1.0330	-42.000	100.0	1	1.100	0.900;
    1360	2	0.000	0.000	0.000	0.000	1	1.0120	-36.000	100.0	1	1.100	0.900;
    1365	2	5.910	1.680	0.000	0.000	1	1.0680	-68.000	100.0	1	1.100	0.900;
    1378	2	0.000	0.000	0.000	0.000	1	0.9910	-41.000	100.0	1	1.100	0.900;
    1403	2	0.000	24.000	0.000	24.000	1	1.0090	-21.000	100.0	1	1.100	0.900;
    1404	2	6.000	1.000	0.000	0.000	1	1.1020	-38.000	100.0	1	1.100	0.900;
    1405	2	6.000	1.000	0.000	0.000	1	1.0170	-38.000	100.0	1	1.100	0.900;
    1406	2	6.000	1.000	0.000	0.000	1	1.0150	-38.000	100.0	1	1.100	0.900;
    1408	2	6.000	1.000	0.000	0.000	1	1.0150	-38.000	100.0	1	1.100	0.900;
    1416	2	0.000	0.000	0.000	0.000	1	1.0340	-42.000	100.0	1	1.100	0.900;
    1417	2	0.000	0.000	0.000	0.000	1	1.0140	-38.000	100.0	1	1.100	0.900;
    1423	2	6.000	1.000	0.000	0.000	1	1.0080	-37.000	100.0	1	1.100	0.900;
    1424	2	6.000	1.000	0.000	0.000	1	1.0050	-38.000	100.0	1	1.100	0.900;
    1425	2	6.000	1.000	0.000	0.000	1	1.0090	-37.000	100.0	1	1.100	0.900;
    1426	2	6.000	1.000	0.000	0.000	1	1.0030	-38.000	100.0	1	1.100	0.900;
    1427	2	6.000	1.000	0.000	0.000	1	1.0080	-38.000	100.0	1	1.100	0.900;
    1428	2	6.000	1.000	0.000	0.000	1	1.0070	-38.000	100.0	1	1.100	0.900;
    1430	2	6.000	1.000	0.000	0.000	1	1.0040	-38.000	100.0	1	1.100	0.900;
    1431	2	6.000	1.000	0.000	0.000	1	1.0140	-37.000	100.0	1	1.100	0.900;
    1432	2	0.000	0.000	0.000	0.000	1	1.0130	-38.000	100.0	1	1.100	0.900;
    1433	2	0.000	0.000	0.000	0.000	1	1.0130	-38.000	100.0	1	1.100	0.900;
    1449	2	0.000	0.000	0.000	0.000	1	1.0770	-14.000	100.0	1	1.100	0.900;
    1450	2	0.000	0.000	0.000	0.000	1	1.0770	-14.000	100.0	1	1.100	0.900;
    1469	2	0.000	0.000	0.000	0.000	1	1.0980	-66.000	100.0	1	1.100	0.900;
    1478	2	3.000	1.000	0.000	0.000	1	0.9560	-33.000	100.0	1	1.100	0.900;
    1480	2	0.000	0.000	0.000	0.000	1	0.9870	-30.000	100.0	1	1.100	0.900;
    1483	2	0.000	0.000	0.000	0.000	1	0.9610	-14.000	100.0	1	1.100	0.900;
    1484	2	0.000	0.000	0.000	0.000	1	0.9610	-14.000	100.0	1	1.100	0.900;
    1485	2	0.000	0.000	0.000	0.000	1	0.9630	-14.000	100.0	1	1.100	0.900;
    1486	2	0.000	0.000	0.000	0.000	1	0.9860	-7.400	100.0	1	1.100	0.900;
    1487	2	0.000	0.000	0.000	0.000	1	0.9860	-7.400	100.0	1	1.100	0.900;
    1488	2	0.000	0.000	0.000	0.000	1	0.9630	-14.000	100.0	1	1.100	0.900;
    1490	2	2.000	1.000	0.000	0.000	1	1.0440	-18.000	100.0	1	1.100	0.900;
    1491	2	2.000	1.000	0.000	0.000	1	1.0410	-19.000	100.0	1	1.100	0.900;
    1502	2	0.000	0.000	0.000	0.000	1	1.0130	-43.000	100.0	1	1.100	0.900;
    1503	2	0.000	0.000	0.000	0.000	1	1.0130	-43.000	100.0	1	1.100	0.900;
    1504	2	0.000	0.000	0.000	0.000	1	1.0130	-43.000	100.0	1	1.100	0.900;
    1505	2	6.000	1.000	0.000	0.000	1	1.0230	-43.000	100.0	1	1.100	0.900;
    1506	2	6.000	1.000	0.000	0.000	1	1.0230	-43.000	100.0	1	1.100	0.900;
    1510	2	6.000	1.000	0.000	0.000	1	1.0300	-43.000	100.0	1	1.100	0.900;
    1511	2	6.000	1.000	0.000	0.000	1	1.0300	-43.000	100.0	1	1.100	0.900;
    1516	2	0.000	0.000	0.000	0.000	1	0.9760	-15.000	100.0	1	1.100	0.900;
    1517	2	0.000	0.000	0.000	0.000	1	0.9330	-24.000	100.0	1	1.100	0.900;
...
];

%% Nombres de Barras
mpc.bus_name = {
    '48 1- PV';
    '85 0 - PQ';
    '86 0 - PQ';
    '5411 0 - PQ';
    '183 1- PV';
    '184 1- PV';
    '203 0 - PQ';
    '206 0 - PQ';
    '208 0 - PQ';
    '209 0 - PQ';
    '211 0 - PQ';
    '215 0 - PQ';
    '216 0 - PQ';
    '219 0 - PQ';
    '220 0 - PQ';
    '227 0 - PQ';
    '229 0 - PQ';
    '233 0 - PQ';
    '238 0 - PQ';
    '239 0 - PQ';
    '241 0 - PQ';
    '244 0 - PQ';
    '246 0 - PQ';
    '271 0 - PQ';
    '284 0 - PQ';
    '288 0 - PQ';
    '301 0 - PQ';
    '303 0 - PQ';
    '304 0 - PQ';
    '305 0 - PQ';
    '306 0 - PQ';
    '307 0 - PQ';
    '308 0 - PQ';
    '311 0 - PQ';
    '313 0 - PQ';
    '316 0 - PQ';
    '319 0 - PQ';
    '320 0 - PQ';
    '322 0 - PQ';
    '323 0 - PQ';
    '324 0 - PQ';
    '325 0 - PQ';
    '327 0 - PQ';
    '329 0 - PQ';
    '331 0 - PQ';
    '333 0 - PQ';
    '334 0 - PQ';
    '335 0 - PQ';
    '337 0 - PQ';
    '338 0 - PQ';
    '339 0 - PQ';
    '341 0 - PQ';
    '343 0 - PQ';
    '344 0 - PQ';
    '346 0 - PQ';
    '350 0 - PQ';
    '351 0 - PQ';
    '354 0 - PQ';
    '355 0 - PQ';
    '357 0 - PQ';
    '358 0 - PQ';
    '360 0 - PQ';
    '361 0 - PQ';
    '362 0 - PQ';
    '365 0 - PQ';
    '368 0 - PQ';
    '369 0 - PQ';
    '370 0 - PQ';
    '371 0 - PQ';
    '372 0 - PQ';
    '373 0 - PQ';
    '374 0 - PQ';
    '375 0 - PQ';
    '376 0 - PQ';
    '378 0 - PQ';
    '379 0 - PQ';
    '380 0 - PQ';
    '382 0 - PQ';
    '384 0 - PQ';
    '386 0 - PQ';
    '388 0 - PQ';
    '389 0 - PQ';
    '390 0 - PQ';
    '392 0 - PQ';
    '395 0 - PQ';
    '398 0 - PQ';
    '399 0 - PQ';
    '401 0 - PQ';
    '402 0 - PQ';
    '403 0 - PQ';
    '404 0 - PQ';
    '405 0 - PQ';
    '407 0 - PQ';
    '408 0 - PQ';
    '409 0 - PQ';
    '410 0 - PQ';
    '411 0 - PQ';
    '412 0 - PQ';
    '413 0 - PQ';
    '415 0 - PQ';
    '421 0 - PQ';
    '424 0 - PQ';
    '425 0 - PQ';
    '427 0 - PQ';
    '434 0 - PQ';
    '446 0 - PQ';
    '451 0 - PQ';
    '452 0 - PQ';
    '453 0 - PQ';
    '454 0 - PQ';
    '456 0 - PQ';
    '457 0 - PQ';
    '461 0 - PQ';
    '466 0 - PQ';
    '467 0 - PQ';
    '468 0 - PQ';
    '469 0 - PQ';
    '471 0 - PQ';
    '472 0 - PQ';
    '475 0 - PQ';
    '478 0 - PQ';
    '479 0 - PQ';
    '480 0 - PQ';
    '482 0 - PQ';
    '483 0 - PQ';
    '484 0 - PQ';
    '485 0 - PQ';
    '487 0 - PQ';
    '488 0 - PQ';
    '489 0 - PQ';
    '491 0 - PQ';
    '492 0 - PQ';
    '493 0 - PQ';
    '496 0 - PQ';
    '497 0 - PQ';
    '598 0 - PQ';
    '730 0 - PQ';
    '752 0 - PQ';
    '790 1- PV';
    '800 0 - PQ';
    '801 0 - PQ';
    '803 0 - PQ';
    '804 0 - PQ';
    '846 0 - PQ';
    '856 0 - PQ';
    '890 0 - PQ';
    '1203 0 - PQ';
    '1244 0 - PQ';
    '1272 0 - PQ';
    '1291 0 - PQ';
    '1303 0 - PQ';
    '1306 0 - PQ';
    '1308 0 - PQ';
    '1313 0 - PQ';
    '1326 0 - PQ';
    '1337 0 - PQ';
    '1338 0 - PQ';
    '1343 0 - PQ';
    '1360 0 - PQ';
    '1365 0 - PQ';
    '1378 0 - PQ';
    '1403 0 - PQ';
    '1404 0 - PQ';
    '1405 0 - PQ';
    '1406 0 - PQ';
    '1408 0 - PQ';
    '1416 0 - PQ';
    '1417 0 - PQ';
    '1423 0 - PQ';
    '1424 0 - PQ';
    '1425 0 - PQ';
    '1426 0 - PQ';
    '1427 0 - PQ';
    '1428 0 - PQ';
    '1430 0 - PQ';
    '1431 0 - PQ';
    '1432 0 - PQ';
    '1433 0 - PQ';
    '1449 0 - PQ';
    '1450 0 - PQ';
    '1469 0 - PQ';
    '1478 0 - PQ';
    '1480 0 - PQ';
    '1483 0 - PQ';
    '1484 0 - PQ';
    '1485 0 - PQ';
    '1486 0 - PQ';
    '1487 0 - PQ';
    '1488 0 - PQ';
    '1490 0 - PQ';
    '1491 0 - PQ';
    '1502 0 - PQ';
    '1503 0 - PQ';
    '1504 0 - PQ';
    '1505 0 - PQ';
    '1506 0 - PQ';
    '1510 0 - PQ';
    '1511 0 - PQ';
    '1516 0 - PQ';
    '1517 0 - PQ';
...
};

%% Datos de Generadores
%  bus Pg Qg Qmax Qmin Vg mBase status Pmax Pmin Pc1 Pc2 Qc1min Qc1max Qc2min Qc2max ramp_agc ramp_10 ramp_30 ramp_q apf
mpc.gen = [
    48	0.000	-545.000	99999.000	0.000	1.0250	100.0	1	9999.000	0.000	0	0	0	0	0	0	0	0	0	0	0;
    85	0.000	0.000	9999.000	-9999.000	1.0900	100.0	1	9999.000	0.000	0	0	0	0	0	0	0	0	0	0	0;
    86	0.000	0.000	9999.000	-9999.000	1.0900	100.0	1	9999.000	0.000	0	0	0	0	0	0	0	0	0	0	0;
    5411	0.000	0.000	9999.000	-9999.000	1.0150	100.0	1	9999.000	0.000	0	0	0	0	0	0	0	0	0	0	0;
    183	60.000	27.950	99999.000	0.000	1.0250	100.0	1	9999.000	0.000	0	0	0	0	0	0	0	0	0	0	0;
    184	60.000	27.950	99999.000	0.000	1.0250	100.0	1	9999.000	0.000	0	0	0	0	0	0	0	0	0	0	0;
    203	0.000	0.000	9999.000	-9999.000	1.0090	100.0	1	9999.000	0.000	0	0	0	0	0	0	0	0	0	0	0;
    206	0.000	0.000	9999.000	-9999.000	1.0220	100.0	1	9999.000	0.000	0	0	0	0	0	0	0	0	0	0	0;
    208	0.000	0.000	9999.000	-9999.000	1.0100	100.0	1	9999.000	0.000	0	0	0	0	0	0	0	0	0	0	0;
    209	0.000	0.000	9999.000	-9999.000	1.0090	100.0	1	9999.000	0.000	0	0	0	0	0	0	0	0	0	0	0;
    211	0.000	0.000	9999.000	-9999.000	1.0090	100.0	1	9999.000	0.000	0	0	0	0	0	0	0	0	0	0	0;
    215	0.000	0.000	9999.000	-9999.000	1.0100	100.0	1	9999.000	0.000	0	0	0	0	0	0	0	0	0	0	0;
    216	0.000	0.000	9999.000	-9999.000	1.0220	100.0	1	9999.000	0.000	0	0	0	0	0	0	0	0	0	0	0;
    219	0.000	0.000	9999.000	-9999.000	1.0060	100.0	1	9999.000	0.000	0	0	0	0	0	0	0	0	0	0	0;
    220	0.000	0.000	9999.000	-9999.000	1.0100	100.0	1	9999.000	0.000	0	0	0	0	0	0	0	0	0	0	0;
    227	0.000	0.000	9999.000	-9999.000	1.0090	100.0	1	9999.000	0.000	0	0	0	0	0	0	0	0	0	0	0;
    229	0.000	0.000	9999.000	-9999.000	1.0090	100.0	1	9999.000	0.000	0	0	0	0	0	0	0	0	0	0	0;
    233	0.000	0.000	9999.000	-9999.000	1.0090	100.0	1	9999.000	0.000	0	0	0	0	0	0	0	0	0	0	0;
    238	0.000	0.000	9999.000	-9999.000	1.0100	100.0	1	9999.000	0.000	0	0	0	0	0	0	0	0	0	0	0;
    239	0.000	0.000	9999.000	-9999.000	1.0090	100.0	1	9999.000	0.000	0	0	0	0	0	0	0	0	0	0	0;
    241	0.000	0.000	9999.000	-9999.000	1.0090	100.0	1	9999.000	0.000	0	0	0	0	0	0	0	0	0	0	0;
    244	0.000	0.000	9999.000	-9999.000	1.0100	100.0	1	9999.000	0.000	0	0	0	0	0	0	0	0	0	0	0;
    246	0.000	0.000	9999.000	-9999.000	1.0100	100.0	1	9999.000	0.000	0	0	0	0	0	0	0	0	0	0	0;
    271	0.000	0.000	9999.000	-9999.000	1.0100	100.0	1	9999.000	0.000	0	0	0	0	0	0	0	0	0	0	0;
    284	0.000	0.000	9999.000	-9999.000	1.0100	100.0	1	9999.000	0.000	0	0	0	0	0	0	0	0	0	0	0;
    288	0.000	0.000	9999.000	-9999.000	1.0090	100.0	1	9999.000	0.000	0	0	0	0	0	0	0	0	0	0	0;
    301	0.000	0.000	9999.000	-9999.000	1.0520	100.0	1	9999.000	0.000	0	0	0	0	0	0	0	0	0	0	0;
    303	0.000	0.000	9999.000	-9999.000	1.0000	100.0	1	9999.000	0.000	0	0	0	0	0	0	0	0	0	0	0;
    304	0.000	0.000	9999.000	-9999.000	1.0080	100.0	1	9999.000	0.000	0	0	0	0	0	0	0	0	0	0	0;
    305	0.000	0.000	9999.000	-9999.000	1.0340	100.0	1	9999.000	0.000	0	0	0	0	0	0	0	0	0	0	0;
    306	0.000	0.000	9999.000	-9999.000	1.0260	100.0	1	9999.000	0.000	0	0	0	0	0	0	0	0	0	0	0;
    307	0.000	0.000	9999.000	-9999.000	1.0240	100.0	1	9999.000	0.000	0	0	0	0	0	0	0	0	0	0	0;
    308	0.000	0.000	9999.000	-9999.000	1.0150	100.0	1	9999.000	0.000	0	0	0	0	0	0	0	0	0	0	0;
    311	0.000	0.000	9999.000	-9999.000	1.0170	100.0	1	9999.000	0.000	0	0	0	0	0	0	0	0	0	0	0;
    313	0.000	0.000	9999.000	-9999.000	1.0210	100.0	1	9999.000	0.000	0	0	0	0	0	0	0	0	0	0	0;
    316	0.000	0.000	9999.000	-9999.000	1.0350	100.0	1	9999.000	0.000	0	0	0	0	0	0	0	0	0	0	0;
    319	0.000	0.000	9999.000	-9999.000	0.9880	100.0	1	9999.000	0.000	0	0	0	0	0	0	0	0	0	0	0;
    320	0.000	0.000	9999.000	-9999.000	1.0240	100.0	1	9999.000	0.000	0	0	0	0	0	0	0	0	0	0	0;
    322	0.000	0.000	9999.000	-9999.000	1.0090	100.0	1	9999.000	0.000	0	0	0	0	0	0	0	0	0	0	0;
    323	0.000	0.000	9999.000	-9999.000	1.0450	100.0	1	9999.000	0.000	0	0	0	0	0	0	0	0	0	0	0;
    324	0.000	0.000	9999.000	-9999.000	1.0120	100.0	1	9999.000	0.000	0	0	0	0	0	0	0	0	0	0	0;
    325	0.000	0.000	9999.000	-9999.000	0.9990	100.0	1	9999.000	0.000	0	0	0	0	0	0	0	0	0	0	0;
    327	0.000	0.000	9999.000	-9999.000	1.0220	100.0	1	9999.000	0.000	0	0	0	0	0	0	0	0	0	0	0;
    329	0.000	0.000	9999.000	-9999.000	1.0320	100.0	1	9999.000	0.000	0	0	0	0	0	0	0	0	0	0	0;
    331	0.000	0.000	9999.000	-9999.000	1.0200	100.0	1	9999.000	0.000	0	0	0	0	0	0	0	0	0	0	0;
    333	0.000	0.000	9999.000	-9999.000	1.0080	100.0	1	9999.000	0.000	0	0	0	0	0	0	0	0	0	0	0;
    334	0.000	0.000	9999.000	-9999.000	1.0230	100.0	1	9999.000	0.000	0	0	0	0	0	0	0	0	0	0	0;
    335	0.000	0.000	9999.000	-9999.000	0.9850	100.0	1	9999.000	0.000	0	0	0	0	0	0	0	0	0	0	0;
    337	0.000	0.000	9999.000	-9999.000	1.0140	100.0	1	9999.000	0.000	0	0	0	0	0	0	0	0	0	0	0;
    338	0.000	0.000	9999.000	-9999.000	1.0260	100.0	1	9999.000	0.000	0	0	0	0	0	0	0	0	0	0	0;
    339	0.000	0.000	9999.000	-9999.000	1.0500	100.0	1	9999.000	0.000	0	0	0	0	0	0	0	0	0	0	0;
    341	0.000	0.000	9999.000	-9999.000	1.0150	100.0	1	9999.000	0.000	0	0	0	0	0	0	0	0	0	0	0;
    343	0.000	0.000	9999.000	-9999.000	1.0310	100.0	1	9999.000	0.000	0	0	0	0	0	0	0	0	0	0	0;
    344	0.000	0.000	9999.000	-9999.000	0.9930	100.0	1	9999.000	0.000	0	0	0	0	0	0	0	0	0	0	0;
    346	0.000	0.000	9999.000	-9999.000	1.0000	100.0	1	9999.000	0.000	0	0	0	0	0	0	0	0	0	0	0;
    350	0.000	0.000	9999.000	-9999.000	0.9540	100.0	1	9999.000	0.000	0	0	0	0	0	0	0	0	0	0	0;
    351	0.000	0.000	9999.000	-9999.000	1.0490	100.0	1	9999.000	0.000	0	0	0	0	0	0	0	0	0	0	0;
    354	0.000	0.000	9999.000	-9999.000	1.0320	100.0	1	9999.000	0.000	0	0	0	0	0	0	0	0	0	0	0;
    355	0.000	0.000	9999.000	-9999.000	1.0310	100.0	1	9999.000	0.000	0	0	0	0	0	0	0	0	0	0	0;
    357	0.000	0.000	9999.000	-9999.000	1.0400	100.0	1	9999.000	0.000	0	0	0	0	0	0	0	0	0	0	0;
    358	0.000	0.000	9999.000	-9999.000	0.9600	100.0	1	9999.000	0.000	0	0	0	0	0	0	0	0	0	0	0;
    360	0.000	0.000	9999.000	-9999.000	0.9880	100.0	1	9999.000	0.000	0	0	0	0	0	0	0	0	0	0	0;
    361	0.000	0.000	9999.000	-9999.000	1.0360	100.0	1	9999.000	0.000	0	0	0	0	0	0	0	0	0	0	0;
    362	0.000	0.000	9999.000	-9999.000	0.9580	100.0	1	9999.000	0.000	0	0	0	0	0	0	0	0	0	0	0;
    365	0.000	0.000	9999.000	-9999.000	1.0100	100.0	1	9999.000	0.000	0	0	0	0	0	0	0	0	0	0	0;
    368	0.000	0.000	9999.000	-9999.000	1.0570	100.0	1	9999.000	0.000	0	0	0	0	0	0	0	0	0	0	0;
    369	0.000	0.000	9999.000	-9999.000	1.0000	100.0	1	9999.000	0.000	0	0	0	0	0	0	0	0	0	0	0;
    370	0.000	0.000	9999.000	-9999.000	1.0000	100.0	1	9999.000	0.000	0	0	0	0	0	0	0	0	0	0	0;
    371	0.000	0.000	9999.000	-9999.000	1.0410	100.0	1	9999.000	0.000	0	0	0	0	0	0	0	0	0	0	0;
    372	0.000	0.000	9999.000	-9999.000	1.0120	100.0	1	9999.000	0.000	0	0	0	0	0	0	0	0	0	0	0;
    373	0.000	0.000	9999.000	-9999.000	0.9990	100.0	1	9999.000	0.000	0	0	0	0	0	0	0	0	0	0	0;
    374	0.000	0.000	9999.000	-9999.000	0.9770	100.0	1	9999.000	0.000	0	0	0	0	0	0	0	0	0	0	0;
    375	0.000	0.000	9999.000	-9999.000	1.0120	100.0	1	9999.000	0.000	0	0	0	0	0	0	0	0	0	0	0;
    376	0.000	0.000	9999.000	-9999.000	0.9020	100.0	1	9999.000	0.000	0	0	0	0	0	0	0	0	0	0	0;
    378	0.000	0.000	9999.000	-9999.000	1.0120	100.0	1	9999.000	0.000	0	0	0	0	0	0	0	0	0	0	0;
    379	0.000	0.000	9999.000	-9999.000	1.0000	100.0	1	9999.000	0.000	0	0	0	0	0	0	0	0	0	0	0;
    380	0.000	0.000	9999.000	-9999.000	1.0060	100.0	1	9999.000	0.000	0	0	0	0	0	0	0	0	0	0	0;
    382	0.000	0.000	9999.000	-9999.000	1.0100	100.0	1	9999.000	0.000	0	0	0	0	0	0	0	0	0	0	0;
    384	0.000	0.000	9999.000	-9999.000	0.9840	100.0	1	9999.000	0.000	0	0	0	0	0	0	0	0	0	0	0;
    386	0.000	0.000	9999.000	-9999.000	0.9160	100.0	1	9999.000	0.000	0	0	0	0	0	0	0	0	0	0	0;
    388	0.000	0.000	9999.000	-9999.000	0.9520	100.0	1	9999.000	0.000	0	0	0	0	0	0	0	0	0	0	0;
    389	0.000	0.000	9999.000	-9999.000	0.9770	100.0	1	9999.000	0.000	0	0	0	0	0	0	0	0	0	0	0;
    390	0.000	0.000	9999.000	-9999.000	1.0250	100.0	1	9999.000	0.000	0	0	0	0	0	0	0	0	0	0	0;
    392	0.000	0.000	9999.000	-9999.000	0.8590	100.0	1	9999.000	0.000	0	0	0	0	0	0	0	0	0	0	0;
    395	0.000	0.000	9999.000	-9999.000	0.9330	100.0	1	9999.000	0.000	0	0	0	0	0	0	0	0	0	0	0;
    398	0.000	0.000	9999.000	-9999.000	0.9430	100.0	1	9999.000	0.000	0	0	0	0	0	0	0	0	0	0	0;
    399	0.000	0.000	9999.000	-9999.000	0.9300	100.0	1	9999.000	0.000	0	0	0	0	0	0	0	0	0	0	0;
    401	0.000	0.000	9999.000	-9999.000	1.0730	100.0	1	9999.000	0.000	0	0	0	0	0	0	0	0	0	0	0;
    402	0.000	0.000	9999.000	-9999.000	1.0330	100.0	1	9999.000	0.000	0	0	0	0	0	0	0	0	0	0	0;
    403	0.000	0.000	9999.000	-9999.000	1.0080	100.0	1	9999.000	0.000	0	0	0	0	0	0	0	0	0	0	0;
    404	0.000	0.000	80.000	80.000	1.0300	100.0	1	9999.000	0.000	0	0	0	0	0	0	0	0	0	0	0;
    405	0.000	0.000	9999.000	-9999.000	1.0140	100.0	1	9999.000	0.000	0	0	0	0	0	0	0	0	0	0	0;
    407	0.000	0.000	9999.000	-9999.000	1.0030	100.0	1	9999.000	0.000	0	0	0	0	0	0	0	0	0	0	0;
    408	0.000	0.000	9999.000	-9999.000	1.0090	100.0	1	9999.000	0.000	0	0	0	0	0	0	0	0	0	0	0;
    409	0.000	0.000	9999.000	-9999.000	1.0150	100.0	1	9999.000	0.000	0	0	0	0	0	0	0	0	0	0	0;
    410	0.000	0.000	9999.000	-9999.000	1.0210	100.0	1	9999.000	0.000	0	0	0	0	0	0	0	0	0	0	0;
    411	0.000	0.000	232.600	-57.700	1.1100	100.0	1	9999.000	0.000	0	0	0	0	0	0	0	0	0	0	0;
    412	0.000	0.000	9999.000	-9999.000	1.0000	100.0	1	9999.000	0.000	0	0	0	0	0	0	0	0	0	0	0;
    413	0.000	0.000	9999.000	-9999.000	1.0150	100.0	1	9999.000	0.000	0	0	0	0	0	0	0	0	0	0	0;
    415	0.000	0.000	9999.000	-9999.000	1.0610	100.0	1	9999.000	0.000	0	0	0	0	0	0	0	0	0	0	0;
    421	0.000	0.000	9999.000	-9999.000	1.0050	100.0	1	9999.000	0.000	0	0	0	0	0	0	0	0	0	0	0;
    424	0.000	0.000	9999.000	-9999.000	1.0130	100.0	1	9999.000	0.000	0	0	0	0	0	0	0	0	0	0	0;
    425	0.000	0.000	9999.000	-9999.000	1.0330	100.0	1	9999.000	0.000	0	0	0	0	0	0	0	0	0	0	0;
    427	0.000	0.000	9999.000	-9999.000	1.0220	100.0	1	9999.000	0.000	0	0	0	0	0	0	0	0	0	0	0;
    434	0.000	0.000	9999.000	-9999.000	1.0260	100.0	1	9999.000	0.000	0	0	0	0	0	0	0	0	0	0	0;
    446	0.000	0.000	9999.000	-9999.000	1.0160	100.0	1	9999.000	0.000	0	0	0	0	0	0	0	0	0	0	0;
    451	0.000	0.000	9999.000	-9999.000	1.0590	100.0	1	9999.000	0.000	0	0	0	0	0	0	0	0	0	0	0;
    452	0.000	0.000	9999.000	-9999.000	1.0470	100.0	1	9999.000	0.000	0	0	0	0	0	0	0	0	0	0	0;
    453	0.000	0.000	9999.000	-9999.000	1.0390	100.0	1	9999.000	0.000	0	0	0	0	0	0	0	0	0	0	0;
    454	0.000	0.000	9999.000	-9999.000	0.9550	100.0	1	9999.000	0.000	0	0	0	0	0	0	0	0	0	0	0;
    456	0.000	0.000	9999.000	-9999.000	1.0690	100.0	1	9999.000	0.000	0	0	0	0	0	0	0	0	0	0	0;
    457	0.000	0.000	9999.000	-9999.000	1.0590	100.0	1	9999.000	0.000	0	0	0	0	0	0	0	0	0	0	0;
    461	0.000	0.000	9999.000	-9999.000	1.0300	100.0	1	9999.000	0.000	0	0	0	0	0	0	0	0	0	0	0;
    466	0.000	0.000	9999.000	-9999.000	0.9970	100.0	1	9999.000	0.000	0	0	0	0	0	0	0	0	0	0	0;
    467	0.000	0.000	9999.000	-9999.000	1.0150	100.0	1	9999.000	0.000	0	0	0	0	0	0	0	0	0	0	0;
    468	0.000	0.000	9999.000	-9999.000	1.0640	100.0	1	9999.000	0.000	0	0	0	0	0	0	0	0	0	0	0;
    469	0.000	0.000	9999.000	-9999.000	1.0980	100.0	1	9999.000	0.000	0	0	0	0	0	0	0	0	0	0	0;
    471	0.000	0.000	9999.000	-9999.000	1.0320	100.0	1	9999.000	0.000	0	0	0	0	0	0	0	0	0	0	0;
    472	0.000	0.000	9999.000	-9999.000	1.0230	100.0	1	9999.000	0.000	0	0	0	0	0	0	0	0	0	0	0;
    475	0.000	0.000	9999.000	-9999.000	0.9920	100.0	1	9999.000	0.000	0	0	0	0	0	0	0	0	0	0	0;
    478	0.000	0.000	9999.000	-9999.000	0.9660	100.0	1	9999.000	0.000	0	0	0	0	0	0	0	0	0	0	0;
    479	0.000	0.000	9999.000	-9999.000	1.0130	100.0	1	9999.000	0.000	0	0	0	0	0	0	0	0	0	0	0;
    480	0.000	0.000	9999.000	-9999.000	1.0280	100.0	1	9999.000	0.000	0	0	0	0	0	0	0	0	0	0	0;
    482	0.000	0.000	9999.000	-9999.000	1.0430	100.0	1	9999.000	0.000	0	0	0	0	0	0	0	0	0	0	0;
    483	0.000	0.000	9999.000	-9999.000	1.0730	100.0	1	9999.000	0.000	0	0	0	0	0	0	0	0	0	0	0;
    484	0.000	0.000	9999.000	-9999.000	1.0270	100.0	1	9999.000	0.000	0	0	0	0	0	0	0	0	0	0	0;
    485	0.000	0.000	9999.000	-9999.000	1.0170	100.0	1	9999.000	0.000	0	0	0	0	0	0	0	0	0	0	0;
    487	0.000	0.000	9999.000	-9999.000	1.0490	100.0	1	9999.000	0.000	0	0	0	0	0	0	0	0	0	0	0;
    488	0.000	0.000	9999.000	-9999.000	1.0720	100.0	1	9999.000	0.000	0	0	0	0	0	0	0	0	0	0	0;
    489	0.000	0.000	9999.000	-9999.000	1.0710	100.0	1	9999.000	0.000	0	0	0	0	0	0	0	0	0	0	0;
    491	0.000	0.000	9999.000	-9999.000	1.0280	100.0	1	9999.000	0.000	0	0	0	0	0	0	0	0	0	0	0;
    492	0.000	0.000	9999.000	-9999.000	1.0150	100.0	1	9999.000	0.000	0	0	0	0	0	0	0	0	0	0	0;
    493	0.000	0.000	9999.000	-9999.000	1.0070	100.0	1	9999.000	0.000	0	0	0	0	0	0	0	0	0	0	0;
    496	0.000	0.000	9999.000	-9999.000	1.0490	100.0	1	9999.000	0.000	0	0	0	0	0	0	0	0	0	0	0;
    497	0.000	0.000	9999.000	-9999.000	1.0420	100.0	1	9999.000	0.000	0	0	0	0	0	0	0	0	0	0	0;
    598	0.000	0.000	9999.000	-9999.000	1.0100	100.0	1	9999.000	0.000	0	0	0	0	0	0	0	0	0	0	0;
    730	0.000	0.000	9999.000	-9999.000	1.0300	100.0	1	9999.000	0.000	0	0	0	0	0	0	0	0	0	0	0;
    752	0.000	0.000	9999.000	-9999.000	0.9960	100.0	1	9999.000	0.000	0	0	0	0	0	0	0	0	0	0	0;
    790	2707.000	692.000	99999.000	0.000	1.0320	100.0	1	9999.000	0.000	0	0	0	0	0	0	0	0	0	0	0;
    800	0.000	0.000	9999.000	-9999.000	1.0350	100.0	1	9999.000	0.000	0	0	0	0	0	0	0	0	0	0	0;
    801	0.000	0.000	9999.000	-9999.000	1.0350	100.0	1	9999.000	0.000	0	0	0	0	0	0	0	0	0	0	0;
    803	0.000	0.000	9999.000	-9999.000	1.0360	100.0	1	9999.000	0.000	0	0	0	0	0	0	0	0	0	0	0;
    804	0.000	0.000	9999.000	-9999.000	1.0360	100.0	1	9999.000	0.000	0	0	0	0	0	0	0	0	0	0	0;
    846	0.000	0.000	9999.000	-9999.000	0.9710	100.0	1	9999.000	0.000	0	0	0	0	0	0	0	0	0	0	0;
    856	0.000	0.000	9999.000	-9999.000	1.0350	100.0	1	9999.000	0.000	0	0	0	0	0	0	0	0	0	0	0;
    890	0.000	0.000	9999.000	-9999.000	1.0370	100.0	1	9999.000	0.000	0	0	0	0	0	0	0	0	0	0	0;
    1203	0.000	0.000	9999.000	-9999.000	1.0090	100.0	1	9999.000	0.000	0	0	0	0	0	0	0	0	0	0	0;
    1244	0.000	0.000	9999.000	-9999.000	1.0100	100.0	1	9999.000	0.000	0	0	0	0	0	0	0	0	0	0	0;
    1272	0.000	0.000	9999.000	-9999.000	1.0100	100.0	1	9999.000	0.000	0	0	0	0	0	0	0	0	0	0	0;
    1291	0.000	0.000	9999.000	-9999.000	1.0070	100.0	1	9999.000	0.000	0	0	0	0	0	0	0	0	0	0	0;
    1303	0.000	0.000	9999.000	-9999.000	1.0370	100.0	1	9999.000	0.000	0	0	0	0	0	0	0	0	0	0	0;
    1306	0.000	0.000	9999.000	-9999.000	1.0170	100.0	1	9999.000	0.000	0	0	0	0	0	0	0	0	0	0	0;
    1308	0.000	0.000	9999.000	-9999.000	1.0170	100.0	1	9999.000	0.000	0	0	0	0	0	0	0	0	0	0	0;
    1313	0.000	0.000	9999.000	-9999.000	1.0180	100.0	1	9999.000	0.000	0	0	0	0	0	0	0	0	0	0	0;
    1326	0.000	0.000	9999.000	-9999.000	1.0210	100.0	1	9999.000	0.000	0	0	0	0	0	0	0	0	0	0	0;
    1337	0.000	0.000	9999.000	-9999.000	1.0320	100.0	1	9999.000	0.000	0	0	0	0	0	0	0	0	0	0	0;
    1338	0.000	0.000	9999.000	-9999.000	1.0350	100.0	1	9999.000	0.000	0	0	0	0	0	0	0	0	0	0	0;
    1343	0.000	0.000	9999.000	-9999.000	1.0330	100.0	1	9999.000	0.000	0	0	0	0	0	0	0	0	0	0	0;
    1360	0.000	0.000	9999.000	-9999.000	1.0120	100.0	1	9999.000	0.000	0	0	0	0	0	0	0	0	0	0	0;
    1365	0.000	0.000	9999.000	-9999.000	1.0680	100.0	1	9999.000	0.000	0	0	0	0	0	0	0	0	0	0	0;
    1378	0.000	0.000	9999.000	-9999.000	0.9910	100.0	1	9999.000	0.000	0	0	0	0	0	0	0	0	0	0	0;
    1403	0.000	0.000	9999.000	-9999.000	1.0090	100.0	1	9999.000	0.000	0	0	0	0	0	0	0	0	0	0	0;
    1404	0.000	0.000	113.000	-157.000	1.1020	100.0	1	9999.000	0.000	0	0	0	0	0	0	0	0	0	0	0;
    1405	0.000	0.000	9999.000	-9999.000	1.0170	100.0	1	9999.000	0.000	0	0	0	0	0	0	0	0	0	0	0;
    1406	0.000	0.000	9999.000	-9999.000	1.0150	100.0	1	9999.000	0.000	0	0	0	0	0	0	0	0	0	0	0;
    1408	0.000	0.000	9999.000	-9999.000	1.0150	100.0	1	9999.000	0.000	0	0	0	0	0	0	0	0	0	0	0;
    1416	0.000	0.000	9999.000	-9999.000	1.0340	100.0	1	9999.000	0.000	0	0	0	0	0	0	0	0	0	0	0;
    1417	0.000	0.000	9999.000	-9999.000	1.0140	100.0	1	9999.000	0.000	0	0	0	0	0	0	0	0	0	0	0;
    1423	0.000	0.000	9999.000	-9999.000	1.0080	100.0	1	9999.000	0.000	0	0	0	0	0	0	0	0	0	0	0;
    1424	0.000	0.000	9999.000	-9999.000	1.0050	100.0	1	9999.000	0.000	0	0	0	0	0	0	0	0	0	0	0;
    1425	0.000	0.000	9999.000	-9999.000	1.0090	100.0	1	9999.000	0.000	0	0	0	0	0	0	0	0	0	0	0;
    1426	0.000	0.000	9999.000	-9999.000	1.0030	100.0	1	9999.000	0.000	0	0	0	0	0	0	0	0	0	0	0;
    1427	0.000	0.000	9999.000	-9999.000	1.0080	100.0	1	9999.000	0.000	0	0	0	0	0	0	0	0	0	0	0;
    1428	0.000	0.000	9999.000	-9999.000	1.0070	100.0	1	9999.000	0.000	0	0	0	0	0	0	0	0	0	0	0;
    1430	0.000	0.000	9999.000	-9999.000	1.0040	100.0	1	9999.000	0.000	0	0	0	0	0	0	0	0	0	0	0;
    1431	0.000	0.000	9999.000	-9999.000	1.0140	100.0	1	9999.000	0.000	0	0	0	0	0	0	0	0	0	0	0;
    1432	0.000	0.000	9999.000	-9999.000	1.0130	100.0	1	9999.000	0.000	0	0	0	0	0	0	0	0	0	0	0;
    1433	0.000	0.000	9999.000	-9999.000	1.0130	100.0	1	9999.000	0.000	0	0	0	0	0	0	0	0	0	0	0;
    1449	0.000	0.000	9999.000	-9999.000	1.0770	100.0	1	9999.000	0.000	0	0	0	0	0	0	0	0	0	0	0;
    1450	0.000	0.000	9999.000	-9999.000	1.0770	100.0	1	9999.000	0.000	0	0	0	0	0	0	0	0	0	0	0;
    1469	0.000	0.000	9999.000	-9999.000	1.0980	100.0	1	9999.000	0.000	0	0	0	0	0	0	0	0	0	0	0;
    1478	0.000	0.000	9999.000	-9999.000	0.9560	100.0	1	9999.000	0.000	0	0	0	0	0	0	0	0	0	0	0;
    1480	0.000	0.000	9999.000	-9999.000	0.9870	100.0	1	9999.000	0.000	0	0	0	0	0	0	0	0	0	0	0;
    1483	0.000	0.000	9999.000	-9999.000	0.9610	100.0	1	9999.000	0.000	0	0	0	0	0	0	0	0	0	0	0;
    1484	0.000	0.000	9999.000	-9999.000	0.9610	100.0	1	9999.000	0.000	0	0	0	0	0	0	0	0	0	0	0;
    1485	0.000	0.000	9999.000	-9999.000	0.9630	100.0	1	9999.000	0.000	0	0	0	0	0	0	0	0	0	0	0;
    1486	0.000	0.000	9999.000	-9999.000	0.9860	100.0	1	9999.000	0.000	0	0	0	0	0	0	0	0	0	0	0;
    1487	0.000	0.000	9999.000	-9999.000	0.9860	100.0	1	9999.000	0.000	0	0	0	0	0	0	0	0	0	0	0;
    1488	0.000	0.000	9999.000	-9999.000	0.9630	100.0	1	9999.000	0.000	0	0	0	0	0	0	0	0	0	0	0;
    1490	0.000	0.000	9999.000	-9999.000	1.0440	100.0	1	9999.000	0.000	0	0	0	0	0	0	0	0	0	0	0;
    1491	0.000	0.000	9999.000	-9999.000	1.0410	100.0	1	9999.000	0.000	0	0	0	0	0	0	0	0	0	0	0;
    1502	0.000	0.000	9999.000	-9999.000	1.0130	100.0	1	9999.000	0.000	0	0	0	0	0	0	0	0	0	0	0;
    1503	0.000	0.000	9999.000	-9999.000	1.0130	100.0	1	9999.000	0.000	0	0	0	0	0	0	0	0	0	0	0;
    1504	0.000	0.000	9999.000	-9999.000	1.0130	100.0	1	9999.000	0.000	0	0	0	0	0	0	0	0	0	0	0;
    1505	0.000	0.000	9999.000	-9999.000	1.0230	100.0	1	9999.000	0.000	0	0	0	0	0	0	0	0	0	0	0;
    1506	0.000	0.000	9999.000	-9999.000	1.0230	100.0	1	9999.000	0.000	0	0	0	0	0	0	0	0	0	0	0;
    1510	0.000	0.000	9999.000	-9999.000	1.0300	100.0	1	9999.000	0.000	0	0	0	0	0	0	0	0	0	0	0;
    1511	0.000	0.000	9999.000	-9999.000	1.0300	100.0	1	9999.000	0.000	0	0	0	0	0	0	0	0	0	0	0;
    1516	0.000	0.000	9999.000	-9999.000	0.9760	100.0	1	9999.000	0.000	0	0	0	0	0	0	0	0	0	0	0;
    1517	0.000	0.000	9999.000	-9999.000	0.9330	100.0	1	9999.000	0.000	0	0	0	0	0	0	0	0	0	0	0;
...
];

%% Datos de Ramas
%  fbus tbus r x b rateA rateB rateC ratio angle status angmin angmax
mpc.branch = [
    1516	1517	1.00000	0.00100	0.00000	1516.0	1516.0	1516.0	1.0000	0.00	0	-360.0	360.0;
    382	1517	1.00000	0.00100	0.00000	382.0	382.0	382.0	0.8200	0.00	0	-360.0	360.0;
    85	48	85.00000	0.95300	0.00000	85.0	85.0	85.0	0.9530	0.00	0	-360.0	360.0;
    86	2345	86.00000	0.00100	0.00000	86.0	86.0	86.0	1.0000	0.00	0	-360.0	360.0;
    265	220	0.00000	1.97000	0.00000	265.0	265.0	265.0	1.0000	0.00	0	-360.0	360.0;
    303	203	0.00000	1.71000	0.00000	303.0	303.0	303.0	1.0160	0.00	0	-360.0	360.0;
    303	203	0.00000	1.67200	0.00000	303.0	303.0	303.0	1.0160	0.00	0	-360.0	360.0;
    303	203	0.00000	1.65500	0.00000	303.0	303.0	303.0	1.0160	0.00	0	-360.0	360.0;
    303	1203	0.00000	1.23000	0.00000	303.0	303.0	303.0	0.9533	0.00	0	-360.0	360.0;
    308	208	0.00000	1.66800	0.00000	308.0	308.0	308.0	0.9930	0.00	0	-360.0	360.0;
    308	208	0.00000	1.65800	0.00000	308.0	308.0	308.0	0.9930	0.00	0	-360.0	360.0;
    308	208	0.00000	1.67100	0.00000	308.0	308.0	308.0	0.9930	0.00	0	-360.0	360.0;
    311	211	0.00000	1.57800	0.00000	311.0	311.0	311.0	1.0100	0.00	0	-360.0	360.0;
    311	211	0.00000	1.55600	0.00000	311.0	311.0	311.0	1.0100	0.00	0	-360.0	360.0;
    319	219	0.00000	1.71000	0.00000	319.0	319.0	319.0	0.9665	0.00	0	-360.0	360.0;
    320	220	0.00000	1.67100	0.00000	320.0	320.0	320.0	0.8300	0.00	0	-360.0	360.0;
    320	220	0.00000	1.67100	0.00000	320.0	320.0	320.0	0.8300	0.00	0	-360.0	360.0;
    320	220	0.00000	1.57800	0.00000	320.0	320.0	320.0	0.9000	0.00	0	-360.0	360.0;
    4497	220	0.00000	1.05400	0.00000	4497.0	4497.0	4497.0	1.0540	0.00	0	-360.0	360.0;
    4495	4395	0.00000	0.30700	0.00000	4495.0	4495.0	4495.0	1.0730	0.00	0	-360.0	360.0;
    327	227	0.00000	1.71000	0.00000	327.0	327.0	327.0	1.0020	0.00	0	-360.0	360.0;
    327	227	0.00000	1.71000	0.00000	327.0	327.0	327.0	1.0020	0.00	0	-360.0	360.0;
    327	227	0.00000	1.71000	0.00000	327.0	327.0	327.0	1.0020	0.00	0	-360.0	360.0;
    329	229	0.00000	1.67000	0.00000	329.0	329.0	329.0	1.0090	0.00	0	-360.0	360.0;
    333	233	0.00000	1.67000	0.00000	333.0	333.0	333.0	1.0050	0.00	0	-360.0	360.0;
    333	233	0.00000	1.67000	0.00000	333.0	333.0	333.0	1.0050	0.00	0	-360.0	360.0;
    338	238	0.00000	6.31800	0.00000	338.0	338.0	338.0	1.0080	0.00	0	-360.0	360.0;
    338	2238	0.00000	6.27700	0.00000	338.0	338.0	338.0	1.0080	0.00	0	-360.0	360.0;
    339	239	0.00000	0.97470	0.00000	339.0	339.0	339.0	0.9747	0.00	0	-360.0	360.0;
    339	239	0.00000	0.97470	0.00000	339.0	339.0	339.0	0.9747	0.00	0	-360.0	360.0;
    4495	4295	0.00000	1.05400	0.00000	4495.0	4495.0	4495.0	1.0540	0.00	0	-360.0	360.0;
    341	241	0.00000	1.57800	0.00000	341.0	341.0	341.0	0.9928	0.00	0	-360.0	360.0;
    341	241	0.00000	1.57800	0.00000	341.0	341.0	341.0	0.9928	0.00	0	-360.0	360.0;
    365	220	0.00000	1.03000	0.00000	365.0	365.0	365.0	1.0300	0.00	0	-360.0	360.0;
    371	271	0.00000	1.78100	0.00000	371.0	371.0	371.0	1.0230	0.00	0	-360.0	360.0;
    371	271	0.00000	1.78100	0.00000	371.0	371.0	371.0	1.0230	0.00	0	-360.0	360.0;
    4495	4295	0.00000	1.05400	0.00000	4495.0	4495.0	4495.0	1.0540	0.00	0	-360.0	360.0;
    388	288	0.00000	1.63500	0.00000	388.0	388.0	388.0	0.9365	0.00	0	-360.0	360.0;
    388	288	0.00000	1.63500	0.00000	388.0	388.0	388.0	0.9365	0.00	0	-360.0	360.0;
    401	183	0.00000	0.19000	0.00000	401.0	401.0	401.0	1.0900	0.00	0	-360.0	360.0;
    401	184	0.00000	0.19000	0.00000	401.0	401.0	401.0	1.0900	0.00	0	-360.0	360.0;
    401	382	0.00000	0.30700	0.00000	401.0	401.0	401.0	1.0130	0.00	0	-360.0	360.0;
    401	382	0.00000	0.30700	0.00000	401.0	401.0	401.0	1.0130	0.00	0	-360.0	360.0;
    401	220	0.00000	1.05400	0.00000	401.0	401.0	401.0	1.0540	0.00	0	-360.0	360.0;
    402	220	0.00000	1.05400	0.00000	402.0	402.0	402.0	1.0540	0.00	0	-360.0	360.0;
    402	220	0.00000	0.92390	0.00000	402.0	402.0	402.0	0.9239	0.00	0	-360.0	360.0;
    402	373	0.00000	0.38970	0.00000	402.0	402.0	402.0	1.0690	0.00	0	-360.0	360.0;
    403	301	0.00000	0.16100	0.00000	301.0	301.0	301.0	0.9200	0.00	0	-360.0	360.0;
    403	301	0.00000	0.15300	0.00000	301.0	301.0	301.0	0.9200	0.00	0	-360.0	360.0;
    403	1502	0.00000	0.50700	0.00000	403.0	403.0	403.0	0.9830	0.00	0	-360.0	360.0;
    403	1503	0.00000	0.50700	0.00000	403.0	403.0	403.0	0.9830	0.00	0	-360.0	360.0;
    403	1504	0.00000	0.50700	0.00000	403.0	403.0	403.0	0.9830	0.00	0	-360.0	360.0;
    403	4403	0.00000	10.00000	0.00000	403.0	403.0	403.0	1.0000	0.00	0	-360.0	360.0;
    404	339	0.00000	0.28500	0.00000	404.0	404.0	404.0	0.9606	0.00	0	-360.0	360.0;
    404	339	0.00000	0.28500	0.00000	404.0	404.0	404.0	0.9606	0.00	0	-360.0	360.0;
    405	220	0.00000	0.05800	0.00000	405.0	405.0	405.0	0.9608	0.00	0	-360.0	360.0;
    405	220	0.00000	0.05700	0.00000	405.0	405.0	405.0	0.9608	0.00	0	-360.0	360.0;
    407	220	0.00000	0.25670	0.00000	407.0	407.0	407.0	0.9421	0.00	0	-360.0	360.0;
    408	220	0.00000	0.05700	0.00000	408.0	408.0	408.0	0.9665	0.00	0	-360.0	360.0;
    408	220	0.00000	0.05700	0.00000	408.0	408.0	408.0	0.9665	0.00	0	-360.0	360.0;
    409	244	0.00000	0.92100	0.00000	409.0	409.0	409.0	0.9210	0.00	0	-360.0	360.0;
    409	344	0.00000	1.21870	0.00000	409.0	409.0	409.0	0.9353	0.00	0	-360.0	360.0;
    409	1244	0.00000	0.50720	0.00000	409.0	409.0	409.0	0.9736	0.00	0	-360.0	360.0;
    410	5410	0.00000	0.50720	0.00000	410.0	410.0	410.0	1.0040	0.00	0	-360.0	360.0;
    410	5411	0.00000	0.50720	0.00000	410.0	410.0	410.0	0.9927	0.00	0	-360.0	360.0;
    411	220	0.00000	6.00000	0.00000	411.0	411.0	411.0	1.0000	0.00	0	-360.0	360.0;
    412	220	0.00000	1.05400	0.00000	412.0	412.0	412.0	1.0540	0.00	0	-360.0	360.0;
    413	220	0.00000	0.08600	0.00000	413.0	413.0	413.0	0.9809	0.00	0	-360.0	360.0;
    413	220	0.00000	0.08600	0.00000	413.0	413.0	413.0	0.9809	0.00	0	-360.0	360.0;
    414	220	0.00000	0.50700	0.00000	414.0	414.0	414.0	1.0190	0.00	0	-360.0	360.0;
    414	220	0.00000	0.50700	0.00000	414.0	414.0	414.0	1.0190	0.00	0	-360.0	360.0;
    415	215	0.00000	1.05400	0.00000	415.0	415.0	415.0	1.0540	0.00	0	-360.0	360.0;
    421	1521	0.00000	0.50700	0.00000	421.0	421.0	421.0	0.9466	0.00	0	-360.0	360.0;
    421	1522	0.00000	0.50700	0.00000	421.0	421.0	421.0	0.9466	0.00	0	-360.0	360.0;
    421	1523	0.00000	0.50700	0.00000	421.0	421.0	421.0	0.9466	0.00	0	-360.0	360.0;
    424	220	0.00000	0.02000	0.00000	424.0	424.0	424.0	1.0360	0.00	0	-360.0	360.0;
    424	220	0.00000	0.12830	0.00000	424.0	424.0	424.0	1.0360	0.00	0	-360.0	360.0;
    425	325	0.00000	0.28580	0.00000	425.0	425.0	425.0	1.0480	0.00	0	-360.0	360.0;
    426	220	0.00000	0.28580	0.00000	426.0	426.0	426.0	1.1000	0.00	0	-360.0	360.0;
    426	1827	0.00000	0.50700	0.00000	426.0	426.0	426.0	1.0960	0.00	0	-360.0	360.0;
    427	220	0.00000	1.05400	0.00000	427.0	427.0	427.0	1.0540	0.00	0	-360.0	360.0;
    434	220	0.00000	0.26000	0.00000	434.0	434.0	434.0	0.9000	0.00	0	-360.0	360.0;
    440	220	0.00000	0.25670	0.00000	440.0	440.0	440.0	1.0040	0.00	0	-360.0	360.0;
    446	246	0.00000	0.83800	0.00000	446.0	446.0	446.0	0.8380	0.00	0	-360.0	360.0;
    446	346	0.00000	0.55300	0.00000	446.0	446.0	446.0	1.0430	0.00	0	-360.0	360.0;
    449	220	0.00000	0.49800	0.00000	449.0	449.0	449.0	0.9000	0.00	0	-360.0	360.0;
    450	220	0.00000	1.05400	0.00000	450.0	450.0	450.0	1.0540	0.00	0	-360.0	360.0;
    450	220	0.00000	1.05400	0.00000	450.0	450.0	450.0	1.0540	0.00	0	-360.0	360.0;
    451	220	0.00000	1.05400	0.00000	451.0	451.0	451.0	1.0540	0.00	0	-360.0	360.0;
    451	351	0.00000	0.28000	0.00000	351.0	351.0	351.0	0.9894	0.00	0	-360.0	360.0;
    452	220	0.00000	2.79000	0.00000	452.0	452.0	452.0	1.0380	0.00	0	-360.0	360.0;
    453	220	0.00000	1.09500	0.00000	453.0	453.0	453.0	1.0950	0.00	0	-360.0	360.0;
    454	220	0.00000	1.05400	0.00000	454.0	454.0	454.0	1.0540	0.00	0	-360.0	360.0;
    454	354	0.00000	1.01300	0.00000	454.0	454.0	454.0	1.0130	0.00	0	-360.0	360.0;
    454	354	0.00000	1.01300	0.00000	454.0	454.0	454.0	1.0130	0.00	0	-360.0	360.0;
    456	220	0.00000	1.05400	0.00000	456.0	456.0	456.0	1.0540	0.00	0	-360.0	360.0;
    4491	220	0.00000	0.50720	0.00000	4491.0	4491.0	4491.0	1.0050	0.00	0	-360.0	360.0;
    457	357	0.00000	1.06000	0.00000	457.0	457.0	457.0	1.0600	0.00	0	-360.0	360.0;
    461	361	0.00000	0.65200	0.00000	461.0	461.0	461.0	0.9708	0.00	0	-360.0	360.0;
    466	220	0.00000	1.02900	0.00000	466.0	466.0	466.0	1.0290	0.00	0	-360.0	360.0;
    466	220	0.00000	1.05400	0.00000	466.0	466.0	466.0	1.0540	0.00	0	-360.0	360.0;
    467	220	0.00000	0.88100	0.00000	467.0	467.0	467.0	0.8810	0.00	0	-360.0	360.0;
    467	220	0.00000	0.55000	0.00000	467.0	467.0	467.0	0.9879	0.00	0	-360.0	360.0;
    467	220	0.00000	0.88100	0.00000	467.0	467.0	467.0	0.8810	0.00	0	-360.0	360.0;
    468	368	0.00000	0.53000	0.00000	368.0	368.0	368.0	1.0650	0.00	0	-360.0	360.0;
    469	220	0.00000	2.58000	0.00000	469.0	469.0	469.0	1.0650	0.00	0	-360.0	360.0;
    469	220	0.00000	2.62500	0.00000	469.0	469.0	469.0	1.0650	0.00	0	-360.0	360.0;
    471	2271	0.00000	1.05400	0.00000	471.0	471.0	471.0	1.0540	0.00	0	-360.0	360.0;
    471	3371	0.00000	0.30700	0.00000	471.0	471.0	471.0	0.9780	0.00	0	-360.0	360.0;
    472	220	0.00000	1.05400	0.00000	472.0	472.0	472.0	1.0540	0.00	0	-360.0	360.0;
    475	220	0.00000	1.05400	0.00000	475.0	475.0	475.0	1.0540	0.00	0	-360.0	360.0;
    475	220	0.00000	1.05400	0.00000	475.0	475.0	475.0	1.0540	0.00	0	-360.0	360.0;
    475	3375	0.00000	0.55300	0.00000	475.0	475.0	475.0	0.9000	0.00	0	-360.0	360.0;
    478	220	0.00000	1.05400	0.00000	478.0	478.0	478.0	1.0540	0.00	0	-360.0	360.0;
    478	378	0.00000	0.55300	0.00000	478.0	478.0	478.0	0.9000	0.00	0	-360.0	360.0;
    479	379	0.00000	0.30700	0.00000	479.0	479.0	479.0	0.9639	0.00	0	-360.0	360.0;
    479	220	0.00000	1.22000	0.00000	479.0	479.0	479.0	0.9896	0.00	0	-360.0	360.0;
    479	220	0.00000	1.22000	0.00000	479.0	479.0	479.0	0.9896	0.00	0	-360.0	360.0;
    480	380	0.00000	0.65200	0.00000	480.0	480.0	480.0	1.0230	0.00	0	-360.0	360.0;
    482	220	0.00000	1.05400	0.00000	482.0	482.0	482.0	1.0540	0.00	0	-360.0	360.0;
    483	1483	0.00000	0.69690	0.00000	483.0	483.0	483.0	1.1210	0.00	0	-360.0	360.0;
    483	1484	0.00000	0.69690	0.00000	483.0	483.0	483.0	1.1210	0.00	0	-360.0	360.0;
    483	1485	0.00000	0.69690	0.00000	483.0	483.0	483.0	1.1180	0.00	0	-360.0	360.0;
    4485	3309	0.00000	0.22400	0.00000	4485.0	4485.0	4485.0	0.9888	0.00	0	-360.0	360.0;
    4472	3372	0.00000	0.30700	0.00000	4472.0	4472.0	4472.0	1.0390	0.00	0	-360.0	360.0;
    483	1488	0.00000	0.69690	0.00000	483.0	483.0	483.0	1.1180	0.00	0	-360.0	360.0;
    483	1516	0.00000	13.02300	0.00000	483.0	483.0	483.0	1.1000	0.00	0	-360.0	360.0;
    483	1516	0.00000	13.02300	0.00000	483.0	483.0	483.0	1.1000	0.00	0	-360.0	360.0;
    484	220	0.00000	1.05400	0.00000	484.0	484.0	484.0	1.0540	0.00	0	-360.0	360.0;
    484	390	0.00000	0.28000	0.00000	484.0	484.0	484.0	0.9862	0.00	0	-360.0	360.0;
    484	390	0.00000	0.28000	0.00000	484.0	484.0	484.0	0.9862	0.00	0	-360.0	360.0;
    4472	1272	0.00000	1.05400	0.00000	4472.0	4472.0	4472.0	1.0540	0.00	0	-360.0	360.0;
    487	220	0.00000	4.10000	0.00000	487.0	487.0	487.0	1.0460	0.00	0	-360.0	360.0;
    487	220	0.00000	4.10000	0.00000	487.0	487.0	487.0	1.0460	0.00	0	-360.0	360.0;
    488	388	0.00000	0.28000	0.00000	488.0	488.0	488.0	1.1000	0.00	0	-360.0	360.0;
    489	220	0.00000	1.05400	0.00000	489.0	489.0	489.0	1.0540	0.00	0	-360.0	360.0;
    489	220	0.00000	1.05400	0.00000	489.0	489.0	489.0	1.0540	0.00	0	-360.0	360.0;
    489	389	0.00000	0.28580	0.00000	489.0	489.0	489.0	1.1000	0.00	0	-360.0	360.0;
    489	389	0.00000	0.28580	0.00000	489.0	489.0	489.0	1.1000	0.00	0	-360.0	360.0;
    491	1291	0.00000	1.05400	0.00000	491.0	491.0	491.0	1.0540	0.00	0	-360.0	360.0;
    491	1291	0.00000	1.05400	0.00000	491.0	491.0	491.0	1.0540	0.00	0	-360.0	360.0;
    492	220	0.00000	1.05400	0.00000	492.0	492.0	492.0	1.0540	0.00	0	-360.0	360.0;
    493	1593	0.00000	0.50700	0.00000	493.0	493.0	493.0	0.9664	0.00	0	-360.0	360.0;
    493	1594	0.00000	0.50700	0.00000	493.0	493.0	493.0	0.9664	0.00	0	-360.0	360.0;
    496	220	0.00000	0.50720	0.00000	496.0	496.0	496.0	1.0350	0.00	0	-360.0	360.0;
    497	1597	0.00000	0.50700	0.00000	497.0	497.0	497.0	1.0390	0.00	0	-360.0	360.0;
    497	1599	0.00000	0.50700	0.00000	497.0	497.0	497.0	1.0390	0.00	0	-360.0	360.0;
    752	220	0.00000	0.48000	0.00000	752.0	752.0	752.0	0.9732	0.00	0	-360.0	360.0;
    801	1483	0.00000	3.20200	0.00000	801.0	801.0	801.0	1.0500	0.00	0	-360.0	360.0;
    801	1484	0.00000	3.20200	0.00000	801.0	801.0	801.0	1.0500	0.00	0	-360.0	360.0;
    801	1485	0.00000	3.20200	0.00000	801.0	801.0	801.0	1.0500	0.00	0	-360.0	360.0;
    801	1486	0.00000	3.20200	0.00000	801.0	801.0	801.0	1.0500	0.00	0	-360.0	360.0;
    801	1487	0.00000	3.20200	0.00000	801.0	801.0	801.0	1.0500	0.00	0	-360.0	360.0;
    801	1488	0.00000	3.20200	0.00000	801.0	801.0	801.0	1.0500	0.00	0	-360.0	360.0;
    803	804	0.00000	0.00100	0.00000	803.0	803.0	803.0	1.0000	0.00	0	-360.0	360.0;
    826	220	0.00000	0.01500	0.00000	826.0	826.0	826.0	0.9500	0.00	0	-360.0	360.0;
    826	220	0.00000	0.01500	0.00000	826.0	826.0	826.0	0.9500	0.00	0	-360.0	360.0;
    846	220	0.00000	0.01500	0.00000	846.0	846.0	846.0	0.9500	0.00	0	-360.0	360.0;
    846	220	0.00000	0.01500	0.00000	846.0	846.0	846.0	0.9500	0.00	0	-360.0	360.0;
    846	220	0.00000	0.01500	0.00000	846.0	846.0	846.0	0.9500	0.00	0	-360.0	360.0;
    849	220	0.00000	0.01500	0.00000	849.0	849.0	849.0	0.9500	0.00	0	-360.0	360.0;
    849	220	0.00000	0.01500	0.00000	849.0	849.0	849.0	0.9500	0.00	0	-360.0	360.0;
    856	220	0.00000	0.04070	0.00000	856.0	856.0	856.0	0.9525	0.00	0	-360.0	360.0;
    856	220	0.00000	0.04080	0.00000	856.0	856.0	856.0	0.9525	0.00	0	-360.0	360.0;
    890	790	0.00000	0.36540	0.00000	890.0	890.0	890.0	1.0250	0.00	0	-360.0	360.0;
    4468	220	0.00000	10.00000	0.00000	468.0	468.0	468.0	1.0000	0.00	0	-360.0	360.0;
    1404	220	0.00000	15.70000	0.00000	1404.0	1404.0	1404.0	1.0000	0.00	0	-360.0	360.0;
    1469	220	0.00000	1.22000	0.00000	1469.0	1469.0	1469.0	1.0870	0.00	0	-360.0	360.0;
    1469	220	0.00000	0.25670	0.00000	1469.0	1469.0	1469.0	1.1000	0.00	0	-360.0	360.0;
    4466	220	0.00000	1.07700	0.00000	4466.0	4466.0	4466.0	1.0770	0.00	0	-360.0	360.0;
    2309	2209	0.00000	1.67260	0.00000	2309.0	2309.0	2309.0	0.9740	0.00	0	-360.0	360.0;
    2309	2209	0.00000	1.67260	0.00000	2309.0	2309.0	2309.0	0.9740	0.00	0	-360.0	360.0;
    2409	220	0.00000	0.02000	0.00000	2409.0	2409.0	2409.0	0.9000	0.00	0	-360.0	360.0;
    2418	1518	0.00000	0.50720	0.00000	2418.0	2418.0	2418.0	0.9752	0.00	0	-360.0	360.0;
    2418	1519	0.00000	0.50720	0.00000	2418.0	2418.0	2418.0	0.9752	0.00	0	-360.0	360.0;
    2484	384	0.00000	0.28580	0.00000	2484.0	2484.0	2484.0	1.1000	0.00	0	-360.0	360.0;
    2484	384	0.00000	0.28580	0.00000	2484.0	2484.0	2484.0	1.1000	0.00	0	-360.0	360.0;
    2484	1584	0.00000	0.50700	0.00000	2484.0	2484.0	2484.0	1.0280	0.00	0	-360.0	360.0;
    2484	1585	0.00000	0.50700	0.00000	2484.0	2484.0	2484.0	1.0280	0.00	0	-360.0	360.0;
    2485	220	0.00000	1.05400	0.00000	2485.0	2485.0	2485.0	1.0540	0.00	0	-360.0	360.0;
    2487	220	0.00000	1.05400	0.00000	2487.0	2487.0	2487.0	1.0540	0.00	0	-360.0	360.0;
    3309	209	0.00000	1.71000	0.00000	3309.0	3309.0	3309.0	1.0140	0.00	0	-360.0	360.0;
    3326	2226	0.00000	2.45000	0.00000	3326.0	3326.0	3326.0	1.0180	0.00	0	-360.0	360.0;
    3326	2226	0.00000	2.45000	0.00000	3326.0	3326.0	3326.0	1.0180	0.00	0	-360.0	360.0;
    3346	2246	0.00000	1.71000	0.00000	3346.0	3346.0	3346.0	0.9125	0.00	0	-360.0	360.0;
    3346	2246	0.00000	1.71000	0.00000	3346.0	3346.0	3346.0	0.9125	0.00	0	-360.0	360.0;
    3370	2270	0.00000	0.97470	0.00000	3370.0	3370.0	3370.0	0.9747	0.00	0	-360.0	360.0;
    3403	1403	0.00000	0.97470	0.00000	3403.0	3403.0	3403.0	0.9747	0.00	0	-360.0	360.0;
    3403	1403	0.00000	0.97470	0.00000	3403.0	3403.0	3403.0	0.9747	0.00	0	-360.0	360.0;
    4222	220	0.00000	0.02000	0.00000	4222.0	4222.0	4222.0	0.9541	0.00	0	-360.0	360.0;
    483	1487	0.00000	0.69690	0.00000	483.0	483.0	483.0	1.1420	0.00	0	-360.0	360.0;
    483	1486	0.00000	0.69690	0.00000	483.0	483.0	483.0	1.1420	0.00	0	-360.0	360.0;
    401	182	0.00000	0.19000	0.00000	401.0	401.0	401.0	1.0900	0.00	0	-360.0	360.0;
    401	181	0.00000	0.19000	0.00000	401.0	401.0	401.0	1.0900	0.00	0	-360.0	360.0;
];

%% Costos de Generación (Input requerido)
%  1=piecewise linear, 2=polynomial; startup; shutdown; n; x1 y1 ... / cn ... c0
mpc.gencost = zeros(257, 7);
mpc.gencost(:, 1) = 2; % Modelo polinomial por defecto
mpc.gencost(:, 4) = 3; % Polinomio de orden 2 (3 coeficientes)

return;
